psse/psse-converter/src/test/resources/ExampleVersion32.xiidm
<?xml version="1.0" encoding="UTF-8"?>
<iidm:network xmlns:iidm="http://www.powsybl.org/schema/iidm/1_17" xmlns:slt="http://www.powsybl.org/schema/iidm/ext/slack_terminal/1_5" id="ExampleVersion32" caseDate="2016-01-01T10:00:00.000+02:00" forecastDistance="0" sourceFormat="PSS/E" minimumValidationLevel="STEADY_STATE_HYPOTHESIS">
    <iidm:substation id="S1">
        <iidm:voltageLevel id="VL1" nominalV="138.0" topologyKind="BUS_BREAKER">
            <iidm:busBreakerTopology>
                <iidm:bus id="B1" name="Bus 1       " v="140.76" angle="0.0"/>
            </iidm:busBreakerTopology>
        </iidm:voltageLevel>
    </iidm:substation>
    <iidm:substation id="S2-7">
        <iidm:voltageLevel id="VL2" nominalV="138.0" topologyKind="BUS_BREAKER">
            <iidm:busBreakerTopology>
                <iidm:bus id="B2" name="Bus 2       " v="143.106" angle="0.44"/>
            </iidm:busBreakerTopology>
        </iidm:voltageLevel>
        <iidm:voltageLevel id="VL7" nominalV="18.0" topologyKind="BUS_BREAKER">
            <iidm:busBreakerTopology>
                <iidm:bus id="B7" name="Bus 7       " v="21.463199999999997" angle="0.44"/>
            </iidm:busBreakerTopology>
            <iidm:shuntCompensator id="B7-SH 1" sectionCount="1" bus="B7" connectableBus="B7">
                <iidm:shuntLinearModel bPerSection="0.05864197530864197" gPerSection="0.0" maximumSectionCount="1"/>
            </iidm:shuntCompensator>
            <iidm:shuntCompensator id="B7-SwSH1" sectionCount="1" bus="B7" connectableBus="B7" localTargetV="18.459">
                <iidm:shuntNonLinearModel>
                    <iidm:section b="0.0" g="0.0"/>
                    <iidm:section b="0.046141975308641975" g="0.0"/>
                </iidm:shuntNonLinearModel>
                <iidm:voltageRegulation targetDeadband="0.9179999999999993" mode="VOLTAGE" regulating="true"/>
            </iidm:shuntCompensator>
        </iidm:voltageLevel>
        <iidm:twoWindingsTransformer id="T-2-7-1 " r="0.0" x="1.1405448" ratedU1="138.0" ratedU2="18.0" voltageLevelId1="VL2" bus1="B2" connectableBus1="B2" voltageLevelId2="VL7" bus2="B7" connectableBus2="B7">
            <iidm:ratioTapChanger tapPosition="0" loadTapChangingCapabilities="false">
                <iidm:step g="-13.137599999999994" b="-13.137599999999994" rho="1.0729613733905579"/>
            </iidm:ratioTapChanger>
        </iidm:twoWindingsTransformer>
    </iidm:substation>
    <iidm:substation id="S3-6-8">
        <iidm:voltageLevel id="VL3" nominalV="138.0" topologyKind="BUS_BREAKER">
            <iidm:busBreakerTopology>
                <iidm:bus id="B3" name="Bus 3       " v="142.58159999999998" angle="2.89"/>
            </iidm:busBreakerTopology>
        </iidm:voltageLevel>
        <iidm:voltageLevel id="VL6" nominalV="20.0" topologyKind="BUS_BREAKER">
            <iidm:busBreakerTopology>
                <iidm:bus id="B6" name="Bus 6       " v="20.89" angle="11.57"/>
            </iidm:busBreakerTopology>
            <iidm:generator id="B6-G1 " energySource="OTHER" minP="-200.0" maxP="200.6" targetP="30.2" localTargetV="20.5" localTargetQ="0.0" bus="B6" connectableBus="B6">
                <iidm:minMaxReactiveLimits minQ="-1.8" maxQ="2.7"/>
                <iidm:voltageRegulation mode="VOLTAGE" regulating="true"/>
            </iidm:generator>
        </iidm:voltageLevel>
        <iidm:voltageLevel id="VL8" nominalV="14.9" topologyKind="BUS_BREAKER">
            <iidm:busBreakerTopology>
                <iidm:bus id="B8" name="Bus 8       " v="16.43619" angle="1.88"/>
            </iidm:busBreakerTopology>
            <iidm:load id="B8-L1" loadType="UNDEFINED" p0="8.631" q0="2.314" bus="B8" connectableBus="B8"/>
        </iidm:voltageLevel>
        <iidm:twoWindingsTransformer id="T-3-6-1 " r="0.0" x="2.22472" ratedU1="138.0" ratedU2="20.0" voltageLevelId1="VL3" bus1="B3" connectableBus1="B3" voltageLevelId2="VL6" bus2="B6" connectableBus2="B6">
            <iidm:ratioTapChanger tapPosition="0" loadTapChangingCapabilities="false">
                <iidm:step g="-6.1039000000000065" b="-6.1039000000000065" rho="1.0319917440660475"/>
            </iidm:ratioTapChanger>
        </iidm:twoWindingsTransformer>
        <iidm:twoWindingsTransformer id="T-3-8-1 " r="0.0" x="0.5595096020000001" ratedU1="138.0" ratedU2="14.9" voltageLevelId1="VL3" bus1="B3" connectableBus1="B3" voltageLevelId2="VL8" bus2="B8" connectableBus2="B8">
            <iidm:ratioTapChanger tapPosition="0" loadTapChangingCapabilities="false">
                <iidm:step g="-13.137599999999994" b="-13.137599999999994" rho="1.0729613733905579"/>
            </iidm:ratioTapChanger>
        </iidm:twoWindingsTransformer>
    </iidm:substation>
    <iidm:substation id="S4-5">
        <iidm:voltageLevel id="VL4" nominalV="138.0" topologyKind="BUS_BREAKER">
            <iidm:busBreakerTopology>
                <iidm:bus id="B4" name="Bus 4       " v="140.2218" angle="-1.91"/>
            </iidm:busBreakerTopology>
        </iidm:voltageLevel>
        <iidm:voltageLevel id="VL5" nominalV="14.9" topologyKind="BUS_BREAKER">
            <iidm:busBreakerTopology>
                <iidm:bus id="B5" name="Bus 5       " v="15.47365" angle="-3.58"/>
            </iidm:busBreakerTopology>
            <iidm:load id="B5-L1" loadType="UNDEFINED" p0="15.0" q0="0.0" bus="B5" connectableBus="B5"/>
        </iidm:voltageLevel>
        <iidm:twoWindingsTransformer id="T-4-5-1 " r="0.0" x="0.4642673120000001" ratedU1="138.0" ratedU2="14.9" voltageLevelId1="VL4" bus1="B4" connectableBus1="B4" voltageLevelId2="VL5" bus2="B5" connectableBus2="B5">
            <iidm:ratioTapChanger tapPosition="0" loadTapChangingCapabilities="false">
                <iidm:step g="-4.3515999999999995" b="-4.3515999999999995" rho="1.0224948875255624"/>
            </iidm:ratioTapChanger>
        </iidm:twoWindingsTransformer>
    </iidm:substation>
    <iidm:line id="L-1-2-1 " name="Bus 1_Bus 2_1 " r="3.6907272" x="11.2683348" b1="1.3862633900441084E-4" b2="1.3862633900441084E-4" voltageLevelId1="VL1" bus1="B1" connectableBus1="B1" voltageLevelId2="VL2" bus2="B2" connectableBus2="B2"/>
    <iidm:line id="L-1-4-1 " name="Bus 1_Bus 4_1 " r="10.2894732" x="42.475737599999995" b1="1.2917454316320101E-4" b2="1.2917454316320101E-4" voltageLevelId1="VL1" bus1="B1" connectableBus1="B1" voltageLevelId2="VL4" bus2="B4" connectableBus2="B4"/>
    <iidm:line id="L-2-3-1 " name="Bus 2_Bus 3_1 " r="8.9487756" x="37.7014068" b1="1.1499684940138626E-4" b2="1.1499684940138626E-4" voltageLevelId1="VL2" bus1="B2" connectableBus1="B2" voltageLevelId2="VL3" bus2="B3" connectableBus2="B3"/>
    <iidm:line id="L-3-3-1 " name="Bus 3_Bus 3_1 " r="11.066468400000002" x="33.578380800000005" b1="8.926696072253729E-5" b2="8.926696072253729E-5" voltageLevelId1="VL3" bus1="B3" connectableBus1="B3" voltageLevelId2="VL3" bus2="B3" connectableBus2="B3"/>
    <iidm:area id="A1" name="IEEE14      " areaType="ControlArea" interchangeTarget="0.0">
        <iidm:voltageLevelRef id="VL1"/>
        <iidm:voltageLevelRef id="VL2"/>
        <iidm:voltageLevelRef id="VL3"/>
        <iidm:voltageLevelRef id="VL4"/>
        <iidm:voltageLevelRef id="VL5"/>
        <iidm:voltageLevelRef id="VL6"/>
        <iidm:voltageLevelRef id="VL7"/>
        <iidm:voltageLevelRef id="VL8"/>
    </iidm:area>
    <iidm:extension id="VL1">
        <slt:slackTerminal id="L-1-2-1 " side="ONE"/>
    </iidm:extension>
</iidm:network>
